Circuit: * C:\Users\komen\Documents\LTspiceXVII\7.1.asc

Warning: Multiple definitions of model "kedibjt" Type: BJT
Direct Newton iteration for .op point succeeded.

Date: Thu Dec 07 14:27:35 2023
Total elapsed time: 0.707 seconds.

tnom = 27
temp = 27
method = modified trap
totiter = 2088
traniter = 2082
tranpoints = 1042
accept = 1042
rejected = 0
matrix size = 6
fillins = 0
solver = Normal
Matrix Compiler1: 298 bytes object code size  0.1/0.1/[0.1]
Matrix Compiler2: off  [0.1]/0.2/0.1

