Circuit: * C:\Users\komen\Documents\LTspiceXVII\7.2.asc

Warning: Multiple definitions of model "kedibjt" Type: BJT
V3: both pins shorted together -- ignoring.
Direct Newton iteration for .op point succeeded.

Date: Thu Dec 14 10:07:17 2023
Total elapsed time: 3.594 seconds.

tnom = 27
temp = 27
method = modified trap
totiter = 1150015
traniter = 1150007
tranpoints = 400007
accept = 240011
rejected = 159996
matrix size = 11
fillins = 0
solver = Normal
Matrix Compiler1:      30 opcodes  0.1/[0.1]/0.1
Matrix Compiler2:      67 opcodes  0.1/[0.1]/0.2

