Circuit: * C:\Users\komen\Documents\LTspiceXVII\Draft1.asc

Direct Newton iteration for .op point succeeded.

Date: Mon Nov 21 19:02:51 2022
Total elapsed time: 0.120 seconds.

tnom = 27
temp = 27
method = modified trap
totiter = 2085
traniter = 2082
tranpoints = 1042
accept = 1042
rejected = 0
matrix size = 6
fillins = 0
solver = Normal
Matrix Compiler1: 164 bytes object code size  0.0/0.0/[0.0]
Matrix Compiler2: 374 bytes object code size  0.1/0.1/[0.0]

