Circuit: * C:\Users\komen\Documents\LTspiceXVII\Draft5.asc

Direct Newton iteration for .op point succeeded.

Date: Thu Nov 23 13:10:26 2023
Total elapsed time: 0.079 seconds.

tnom = 27
temp = 27
method = modified trap
totiter = 2086
traniter = 2082
tranpoints = 1042
accept = 1042
rejected = 0
matrix size = 5
fillins = 0
solver = Normal
Matrix Compiler1:       7 opcodes  0.0/[0.0]/0.0
Matrix Compiler2: off  [0.0]/0.0/0.0

