Circuit: * C:\Users\komen\Documents\LTspiceXVII\Draft4.asc

Limiting rise time of source v2 to 5e-005
Limiting fall time of source v2 to 5e-005
Direct Newton iteration for .op point succeeded.

Date: Thu Nov 09 10:40:51 2023
Total elapsed time: 0.081 seconds.

tnom = 27
temp = 27
method = modified trap
totiter = 2728
traniter = 2717
tranpoints = 1244
accept = 1194
rejected = 50
matrix size = 6
fillins = 0
solver = Normal
Matrix Compiler1: 146 bytes object code size  0.0/0.0/[0.0]
Matrix Compiler2: 380 bytes object code size  0.0/0.1/[0.0]

