Circuit: * C:\Users\komen\Documents\LTspiceXVII\exp51a.asc

Direct Newton iteration for .op point succeeded.

Date: Wed Nov 22 17:58:35 2023
Total elapsed time: 0.053 seconds.

tnom = 27
temp = 27
method = modified trap
totiter = 2756
traniter = 2751
tranpoints = 1216
accept = 1148
rejected = 68
matrix size = 12
fillins = 0
solver = Normal
Matrix Compiler1: 624 bytes object code size  0.1/0.1/[0.1]
Matrix Compiler2: 920 bytes object code size  0.0/0.1/[0.0]

