Circuit: * C:\Users\komen\Documents\LTspiceXVII\exp52a.asc

Direct Newton iteration for .op point succeeded.
Changing Tseed to 4.88281e-010
Changing Tseed to 4.88281e-012
Changing Tseed to 4.88281e-009

Date: Wed Nov 22 18:10:09 2023
Total elapsed time: 0.038 seconds.

tnom = 27
temp = 27
method = modified trap
totiter = 2106
traniter = 2101
tranpoints = 1038
accept = 1035
rejected = 0
matrix size = 8
fillins = 0
solver = Normal
Matrix Compiler1:      17 opcodes  0.1/[0.0]/0.0
Matrix Compiler2: 554 bytes object code size  0.0/0.1/[0.0]

