Circuit: * C:\Users\komen\Documents\LTspiceXVII\exp62.asc

Direct Newton iteration for .op point succeeded.

Date: Thu Nov 30 14:02:48 2023
Total elapsed time: 0.068 seconds.

tnom = 27
temp = 27
method = modified trap
totiter = 2093
traniter = 2085
tranpoints = 1042
accept = 1042
rejected = 0
matrix size = 10
fillins = 0
solver = Normal
Matrix Compiler1: 560 bytes object code size  0.1/0.1/[0.1]
Matrix Compiler2: off  [0.1]/0.1/0.1

