Circuit: * C:\Users\komen\Documents\LTspiceXVII\exp71.asc

No AC stimulus found:
     Set the value of a current or voltage source to "AC 1."
     to make it behave as a signal generator for AC analysis.
Direct Newton iteration for .op point succeeded.

Date: Thu Dec 07 14:04:09 2023
Total elapsed time: 0.072 seconds.

tnom = 27
temp = 27
method = trap
totiter = 7
traniter = 0
tranpoints = 0
accept = 0
rejected = 0
matrix size = 18
fillins = 0
solver = Normal
Matrix Compiler1:      56 opcodes
Matrix Compiler2: 1.44 KB object code size
