Circuit: * C:\Users\komen\Documents\LTspiceXVII\exp83.asc

Direct Newton iteration for .op point succeeded.

Date: Thu Dec 14 13:16:57 2023
Total elapsed time: 0.098 seconds.

tnom = 27
temp = 27
method = modified trap
totiter = 3745
traniter = 3726
tranpoints = 1781
accept = 1610
rejected = 171
matrix size = 12
fillins = 2
solver = Normal
Matrix Compiler1: 602 bytes object code size  0.1/0.1/[0.1]
Matrix Compiler2: off  [0.1]/1.0/0.1

